* Voltage Regulator and Logic Switch Model
V1 N001 0 DC 5
XU1 N001 N002 Vout 0 TPS784
XU2 Vout N003 N004 0 MPQ5069
R1 N002 N004 1k
C1 Vout 0 10uF
.include "TPS784.lib"
.include "MPQ5069.lib"
.tran 1
.end
